<?xml version="1.0" encoding="UTF-8"?>

<!-- generated on 2023-06-22 14:21:08 by Eclipse SUMO netedit Version 1.17.0
-->

<routes xmlns:xsi="http://www.w3.org/2001/XMLSchema-instance" xsi:noNamespaceSchemaLocation="http://sumo.dlr.de/xsd/routes_file.xsd">
    <!-- Routes -->
    <route id="r_0" edges="-31361203#1 -31361203#0 -678522073 31361405#0 31361405#1 31361421#1 31361421#2 29709193#5 503196748"/>
    <route id="r_1" edges="-31361203#1 31361203#1 31361203#2 -31361196#3 -31361196#2 -31361196#1 -31361190#1 -31361190#0 29709193#14 192311202#0 192311202#1 192311202#2 -192311202#2"/>
    <route id="r_10" edges="503196748 -503196748 29709193#6 29709193#7 29709193#8 29709193#9 29709193#10 29709193#11 29709193#12 29709193#13 29709193#14 192311202#0 192311202#1 192311202#2 -192311202#2"/>
    <route id="r_11" edges="503196748 -503196748 29709193#6 29709193#7 29709193#8 29709193#9 29709193#10 29709193#11 31361200#0 31361200#1 -192308323#8 -192308323#7 -192308323#6 -192308323#5 31361162#2 67308278#0"/>
    <route id="r_12" edges="-192311202#2 31361179#0 31361179#1 192308323#6 192308323#7 31361196#3 -31361203#2 -31361203#1"/>
    <route id="r_13" edges="-192311202#2 192311202#2 31361162#0 31361162#1 31361162#2 67308278#0"/>
    <route id="r_14" edges="-192311202#2 -192311202#1 -192311202#0 -887678945 -31829731#1 -31829731#0 192312374#1 681652654 31361405#0 31361405#1 31361421#1 31361421#2 29709193#5 503196748"/>
    <route id="r_15" edges="-192311202#2 31361179#0 31361179#1 192308323#6 192308323#7 31361196#3 -31361203#2 -31361203#1 -31361203#0 678522076#1 678522076#2 678522076#3 678522076#5 678522076#6 312453600#4 678522077 443795975#0 -443795988" color="blue"/>
    <route id="r_16" edges="67308278#0 -31361152#2 -31361152#0 -192311202#3 -192311202#2"/>
    <route id="r_17" edges="67308278#0 -31361152#2 192308323#4 192308323#5 192308323#6 192308323#7 31361196#3 -31361203#2 -31361203#1"/>
    <route id="r_18" edges="67308278#0 31361152#3 31361155#0 31361155#1 31361155#2 31361155#3 678522076#6 312453600#4 312453600#5 312453600#6 312453600#7 -31361491#2 -31361491#1 -31361491#0 29709193#2 29709193#5 503196748"/>
    <route id="r_19" edges="67308278#0 31361152#3 31361155#0 31361155#1 31361155#2 31361155#3 678522076#6 312453600#4 678522077 443795975#0 -443795988"/>
    <route id="r_2" edges="-31361203#1 -31361203#0 678522076#1 678522076#2 678522076#3 678522076#5 678522076#6 312453600#4 678522077 443795975#0 -443795988"/>
    <route id="r_3" edges="-31361203#1 -547167195 31361208#1 849016369#4 -31361185 31361179#4 -31361162#4 67308278#0"/>
    <route id="r_4" edges="-443795988 -31361257#2 31361257#2 443795988 -443795975#0 -678522077 312453600#5 312453600#6 312453600#7 -31361491#2 -31361491#1 -31361491#0 29709193#2 29709193#5 503196748"/>
    <route id="r_5" edges="-443795988 -31361257#2 -31361257#1 -31361257#0 -678743834#1 -678743834#0 -678522076#6 -678522076#5 -678522076#4 -678522076#2 -678522076#1 31361203#0 31361203#1 -31361203#1"/>
    <route id="r_6" edges="-443795988 -31361257#2 -31361257#1 -31361257#0 -678743834#1 -678743834#0 -678522076#6 -31361155#3 -31361155#2 -31361155#1 -678739456 -31361162#4 67308278#0"/>
    <route id="r_7" edges="-443795988 -31361257#2 -31361257#1 -31361257#0 -678743834#1 -678743834#0 -678522076#6 -31361155#3 -31361155#2 -31361155#1 -678739456 -31361162#4 -31361162#3 -31361162#1 -31361162#0 -192311202#2"/>
    <route id="r_8" edges="503196748 -503196748 29709193#6 -31361453#4 -31361421#0 31361245#0 31361245#1 31361245#2 31361245#3 678522077 443795975#0 -443795988"/>
    <route id="r_9" edges="503196748 -503196748 29709193#6 -31361453#4 -31361421#0 31361245#0 31361365#4 31361365#5 31361203#0 31361203#1 -31361203#1"/>
</routes>
